LAMMPS (4 Feb 2025)
# Lennard-Jones Fluid Simulation

units        lj                  # Use Lennard-Jones units
dimension    3                   # 3D simulation
boundary     p p p               # Periodic boundary conditions in all directions
atom_style   atomic              # Each atom is treated as a single particle

lattice      fcc 0.8442          # Face-centered cubic (FCC) lattice with density 0.8442
Lattice spacing in x,y,z = 1.6795962 1.6795962 1.6795962
region       box block 0 10 0 10 0 10  # Define a 10x10x10 simulation box
create_box   1 box               # Create the simulation box for 1 atom type
Created orthogonal box = (0 0 0) to (16.795962 16.795962 16.795962)
create_atoms 1 box               # Populate the box with atoms
Created 4000 atoms

mass         1 1.0               # Assign mass to atoms

velocity     all create 1.0 4928459  # Initialize velocities at temperature 1.0

pair_style   lj/cut 2.5          # Use Lennard-Jones potential with cutoff 2.5σ
pair_coeff   1 1 1.0 1.0 2.5     # Set ε = 1.0, σ = 1.0, cutoff = 2.5σ

neighbor     0.3 bin             # Set neighbor list parameters
neigh_modify every 1 delay 0     # Update neighbor list every step

fix          1 all nve           # Apply NVE (constant energy) integration

thermo       100                 # Output thermodynamic info every 100 steps
run          1000                # Run for 1000 timesteps
Generated 0 of 0 mixed pair_coeff terms from geometric mixing rule
Step          Temp          E_pair         E_mol          TotEng         Press
0   1             -6.7733681      0             -5.2737431     -5.3913283
Averages over the last 6 of 11 rows, steps 500 to 1000:
Temp E_pair E_mol TotEng Press
0.54579 -6.0991 0 -5.28062 -1.78952
Loop time of 3.11624 on 1 procs for 1000 steps with 4000 atoms
